# shortYedY-4S opt  RIJCOSX def2/J GRID4 NOFINALGRID D3BJ
# By default, def2-SVP/TZVP/TZVPP use def2-ECP, no need to write 

!UKS opt B3LYP/G def2-TZVP def2/JK RIJK Conv 
!TightSCF DIRECT xyzfile 

%pal nprocs 8
end

%method SPECIALGRIDATOMS 42
        SPECIALGRIDINTACC 7
        end

%basis newGTO Mo "def2-TZVPP" end
       newGTO S "def2-TZVPP" end
end

%maxcore 4000

* xyz -1 2
42      -0.970000000      2.230000000     -1.000000000
8       -0.985840798      2.206892176      0.687170551
16      -2.515638044      0.570968733     -1.844275698
16      -2.701928158      3.708428889     -1.809500318
6       -4.037981396      1.388564575     -2.225276167
6       -4.123458384      2.728582635     -2.195594702
6        1.460320735      6.884183079     -2.749476494
6        1.081222322      6.671259776     -1.304209353
8        1.320642789      7.930927365     -3.339571955
7        0.676817864      7.930151408     -0.690231635
1        1.990088634      6.286156917     -0.817729165
6        0.011554564      5.560371309     -1.189528533
1        0.430556147      8.591857986     -1.419472990
1       -0.302861506      5.511280008     -0.145695908
1       -0.860814907      5.822713169     -1.790494890
16       0.646772471      3.913066998     -1.696452916
1       -0.129121114      7.796220443     -0.093555495
6       -5.152990311      0.439626180     -2.577286879
1       -6.062029760      0.957772816     -2.882953967
1       -4.850422261     -0.221499233     -3.394826475
1       -5.400708829     -0.204285519     -1.727708840
6       -5.348184791      3.548649244     -2.502562222
1       -5.657091339      4.130169885     -1.628381335
1       -5.141920279      4.266682767     -3.301968395
1       -6.193261150      2.933965548     -2.812093263
1        1.878787382      5.996377209     -3.254135332
16       0.622813274      0.590220156     -1.795903425
6        2.136542470      0.892472165     -0.807663085
1        2.871878848      0.138073920     -1.091595889
1        2.535250636      1.885576524     -1.008401105
1        1.923995943      0.802782701      0.257220554
*




