31
Coordinates from ORCA-job MsrP-4S-opt7 E -2180.664622946457
  Mo     -0.970000      2.230000     -1.000000
  O      -0.985841      2.206892      0.687171
  S      -2.515638      0.570969     -1.844276
  S      -2.701928      3.708429     -1.809500
  C      -4.037981      1.388565     -2.225276
  C      -4.123458      2.728583     -2.195595
  C       1.460321      6.884183     -2.749476
  C       1.081222      6.671260     -1.304209
  O       1.320643      7.930927     -3.339572
  N       0.676818      7.930151     -0.690232
  H       1.990089      6.286157     -0.817729
  C       0.011555      5.560371     -1.189529
  H       0.430556      8.591858     -1.419473
  H      -0.302862      5.511280     -0.145696
  H      -0.860815      5.822713     -1.790495
  S       0.646772      3.913067     -1.696453
  H      -0.129121      7.796220     -0.093555
  C      -5.152990      0.439626     -2.577287
  H      -6.062030      0.957773     -2.882954
  H      -4.850422     -0.221499     -3.394826
  H      -5.400709     -0.204286     -1.727709
  C      -5.348185      3.548649     -2.502562
  H      -5.657091      4.130170     -1.628381
  H      -5.141920      4.266683     -3.301968
  H      -6.193261      2.933966     -2.812093
  H       1.878787      5.996377     -3.254135
  S       0.622813      0.590220     -1.795903
  C       2.136542      0.892472     -0.807663
  H       2.871879      0.138074     -1.091596
  H       2.535251      1.885577     -1.008401
  H       1.923996      0.802783      0.257221
31
Coordinates from ORCA-job MsrP-4S-opt7 E -2180.664620789205
  Mo     -0.974562      2.236844     -1.018601
  O      -0.993111      2.223353      0.667740
  S      -2.515576      0.570097     -1.855832
  S      -2.708780      3.706079     -1.839875
  C      -4.043889      1.380986     -2.228096
  C      -4.132209      2.721086     -2.206423
  C       1.488356      6.895991     -2.735677
  C       1.090997      6.669981     -1.297403
  O       1.364340      7.950641     -3.315153
  N       0.690506      7.925183     -0.673458
  H       1.990811      6.271820     -0.805013
  C       0.011218      5.566758     -1.206932
  H       0.460590      8.598388     -1.397750
  H      -0.315999      5.509956     -0.167733
  H      -0.851906      5.842006     -1.815699
  S       0.639904      3.919513     -1.722043
  H      -0.124547      7.791787     -0.089173
  C      -5.160179      0.426649     -2.561392
  H      -6.073901      0.940120     -2.860799
  H      -4.864894     -0.239560     -3.377481
  H      -5.396989     -0.212040     -1.704674
  C      -5.361845      3.536693     -2.505339
  H      -5.662920      4.122826     -1.631377
  H      -5.165656      4.250319     -3.311078
  H      -6.208950      2.918252     -2.802058
  H       1.903340      6.010110     -3.246106
  S       0.623468      0.596057     -1.802345
  C       2.131704      0.901729     -0.806685
  H       2.871820      0.151912     -1.090732
  H       2.526547      1.897530     -1.002020
  H       1.915302      0.807145      0.257049
31
Coordinates from ORCA-job MsrP-4S-opt7 E -2180.664604884034
  Mo     -0.969844      2.231784     -1.024075
  O      -0.988918      2.210958      0.660309
  S      -2.511457      0.569770     -1.868893
  S      -2.702232      3.705663     -1.840724
  C      -4.042802      1.382755     -2.225924
  C      -4.130067      2.722988     -2.198631
  C       1.544567      6.891374     -2.700576
  C       1.074050      6.669003     -1.284146
  O       1.455044      7.946055     -3.286440
  N       0.644155      7.925807     -0.683433
  H       1.946735      6.271018     -0.745529
  C      -0.009372      5.566511     -1.245795
  H       0.457411      8.600164     -1.419294
  H      -0.390129      5.514245     -0.225236
  H      -0.839805      5.839245     -1.899954
  S       0.645720      3.917164     -1.719523
  H      -0.202266      7.795434     -0.144876
  C      -5.162858      0.429857     -2.551027
  H      -6.079400      0.944369     -2.839696
  H      -4.876380     -0.234223     -3.372010
  H      -5.391350     -0.211548     -1.693916
  C      -5.361953      3.540551     -2.481888
  H      -5.654257      4.123122     -1.602397
  H      -5.173447      4.257528     -3.286348
  H      -6.212541      2.923625     -2.772519
  H       1.983409      6.003970     -3.187320
  S       0.629248      0.594736     -1.814667
  C       2.138106      0.900932     -0.820087
  H       2.884911      0.163401     -1.118895
  H       2.521733      1.903827     -1.001668
  H       1.926982      0.788127      0.243020
31
Coordinates from ORCA-job MsrP-4S-opt7 E -2180.664622769134
  Mo     -0.973862      2.237520     -1.020049
  O      -0.983263      2.225610      0.664291
  S      -2.517434      0.568271     -1.846822
  S      -2.711446      3.706427     -1.834782
  C      -4.045748      1.379406     -2.220665
  C      -4.134558      2.719552     -2.200049
  C       1.521700      6.897424     -2.716133
  C       1.085036      6.668353     -1.289992
  O       1.422457      7.955971     -3.293450
  N       0.674848      7.923104     -0.671246
  H       1.969090      6.263465     -0.775400
  C      -0.001413      5.569642     -1.232185
  H       0.473799      8.603003     -1.397964
  H      -0.357200      5.511732     -0.202818
  H      -0.846575      5.849916     -1.863715
  S       0.635492      3.921347     -1.733731
  H      -0.159124      7.792993     -0.113575
  C      -5.161940      0.424608     -2.552814
  H      -6.075872      0.937434     -2.852641
  H      -4.867003     -0.242680     -3.368186
  H      -5.398449     -0.213328     -1.695366
  C      -5.364782      3.533967     -2.498943
  H      -5.666212      4.120286     -1.625125
  H      -5.169673      4.247414     -3.305076
  H      -6.211627      2.914447     -2.794666
  H       1.944568      6.010972     -3.218927
  S       0.623523      0.598922     -1.811288
  C       2.132374      0.902837     -0.816020
  H       2.877417      0.162899     -1.112888
  H       2.518804      1.904332     -0.999017
  H       1.920064      0.792367      0.247087
31
Coordinates from ORCA-job MsrP-4S-opt7 E -2180.664616033114
  Mo     -0.981056      2.235072     -1.013467
  O      -0.997781      2.228249      0.670871
  S      -2.523702      0.565712     -1.841733
  S      -2.713133      3.703886     -1.840231
  C      -4.050018      1.377754     -2.221392
  C      -4.136827      2.717985     -2.205562
  C       1.507938      6.888036     -2.722036
  C       1.092530      6.661448     -1.289175
  O       1.398197      7.944924     -3.300515
  N       0.692322      7.917362     -0.666209
  H       1.984103      6.256414     -0.787512
  C       0.006157      5.563591     -1.213807
  H       0.481686      8.596490     -1.390679
  H      -0.333785      5.506289     -0.178825
  H      -0.848385      5.844358     -1.832122
  S       0.633569      3.914714     -1.725473
  H      -0.133773      7.788969     -0.096570
  C      -5.166358      0.423600     -2.554586
  H      -6.078563      0.936847     -2.859008
  H      -4.869479     -0.246358     -3.367039
  H      -5.406639     -0.211490     -1.696155
  C      -5.364757      3.533275     -2.511613
  H      -5.668042      4.123323     -1.641045
  H      -5.165834      4.243431     -3.319802
  H      -6.211521      2.914144     -2.807870
  H       1.919687      5.999497     -3.230775
  S       0.617659      0.591906     -1.792754
  C       2.136027      0.925124     -0.821649
  H       2.880855      0.181391     -1.108991
  H       2.516249      1.923477     -1.032391
  H       1.935666      0.838787      0.245964
31
Coordinates from ORCA-job MsrP-4S-opt7 E -2180.664626629784
  Mo     -0.973032      2.235190     -1.020365
  O      -0.988591      2.220820      0.663794
  S      -2.515481      0.568810     -1.854918
  S      -2.706819      3.706363     -1.839414
  C      -4.044096      1.381219     -2.224449
  C      -4.131634      2.721314     -2.202699
  C       1.505451      6.894813     -2.724375
  C       1.085297      6.669040     -1.292778
  O       1.395140      7.950629     -3.304701
  N       0.677251      7.924308     -0.673694
  H       1.976569      6.268629     -0.786845
  C       0.003238      5.566754     -1.219733
  H       0.467471      8.601499     -1.400220
  H      -0.340581      5.509861     -0.185993
  H      -0.850025      5.842851     -1.841911
  S       0.639503      3.919621     -1.726045
  H      -0.151055      7.793633     -0.107803
  C      -5.161215      0.427622     -2.556675
  H      -6.075152      0.941431     -2.854890
  H      -4.867449     -0.238693     -3.373238
  H      -5.397219     -0.211246     -1.699859
  C      -5.361319      3.537235     -2.499982
  H      -5.661077      4.123514     -1.625652
  H      -5.166300      4.250847     -3.306066
  H      -6.209064      2.918927     -2.795097
  H       1.923918      6.007380     -3.229544
  S       0.626199      0.596457     -1.808195
  C       2.133735      0.901929     -0.811368
  H       2.876769      0.157210     -1.100846
  H       2.524310      1.900571     -1.000480
  H       1.918250      0.799671      0.251886
31
Coordinates from ORCA-job MsrP-4S-opt7 E -2180.664623876778
  Mo     -0.974642      2.235448     -1.019331
  O      -0.988316      2.223041      0.664489
  S      -2.517687      0.567680     -1.849884
  S      -2.709041      3.705874     -1.838537
  C      -4.045672      1.379961     -2.222703
  C      -4.133277      2.720105     -2.202535
  C       1.509900      6.895163     -2.721878
  C       1.085817      6.667509     -1.291748
  O       1.407614      7.953631     -3.298841
  N       0.678220      7.922235     -0.671429
  H       1.975119      6.264842     -0.784240
  C       0.001892      5.566834     -1.223070
  H       0.473124      8.601695     -1.397323
  H      -0.344999      5.509528     -0.190497
  H      -0.849171      5.844849     -1.847508
  S       0.637236      3.919169     -1.728783
  H      -0.152752      7.792232     -0.109302
  C      -5.162601      0.425975     -2.554548
  H      -6.076231      0.939391     -2.854324
  H      -4.868180     -0.241560     -3.369891
  H      -5.399440     -0.211697     -1.697027
  C      -5.362838      3.535545     -2.501564
  H      -5.663455      4.122606     -1.628002
  H      -5.167257      4.248439     -3.308105
  H      -6.210306      2.916785     -2.796804
  H       1.931649      6.009063     -3.226384
  S       0.624312      0.596252     -1.807126
  C       2.133663      0.905831     -0.814336
  H       2.878177      0.163473     -1.106293
  H       2.520662      1.905805     -1.004114
  H       1.921473      0.802503      0.249481
31
Coordinates from ORCA-job MsrP-4S-opt7 E -2180.664626013588
  Mo     -0.973816      2.234861     -1.018174
  O      -0.987164      2.221352      0.665527
  S      -2.517314      0.567819     -1.849300
  S      -2.707978      3.706262     -1.836234
  C      -4.044830      1.380782     -2.222630
  C      -4.132150      2.720925     -2.201699
  C       1.508451      6.894912     -2.722560
  C       1.084955      6.667883     -1.292152
  O       1.402177      7.952066     -3.301211
  N       0.676631      7.922653     -0.672449
  H       1.974798      6.266203     -0.784797
  C       0.001867      5.566461     -1.222183
  H       0.471936      8.601900     -1.398664
  H      -0.344608      5.509695     -0.189437
  H      -0.849635      5.843373     -1.846511
  S       0.638223      3.918882     -1.726885
  H      -0.154717      7.792653     -0.110879
  C      -5.161776      0.427273     -2.555770
  H      -6.075078      0.941084     -2.855869
  H      -4.866955     -0.239854     -3.371303
  H      -5.399354     -0.210842     -1.698782
  C      -5.361375      3.536774     -2.501007
  H      -5.662429      4.123369     -1.627281
  H      -5.165143      4.250126     -3.306986
  H      -6.208777      2.918362     -2.797174
  H       1.927105      6.007790     -3.227827
  S       0.624877      0.596006     -1.807422
  C       2.133978      0.904019     -0.813768
  H       2.878399      0.161795     -1.106318
  H       2.521292      1.904117     -1.002265
  H       1.921400      0.799508      0.249854
