%NProcShared=16
%Chk=AcetylChloride.chk
#n B3LYP/6-31G(d) Opt

 AcetylChloride

0 1
C  
C   1 B1
Cl  1 B2 2 A2
O   1 B3 2 A3 3 D3
H   2 B4 1 A4 3 D4
H   2 B5 1 A5 3 D5
H   2 B6 1 A6 3 D6
Variables:
B1        4.17814
B2        4.00987
A2      134.73875
B3        3.58216
A3      164.02878
D3      179.99998
B4        1.07000
A4      109.47100
D4        0.00002
B5        1.07000
A5      109.47128
D5      240.00006
B6        1.07000
A6      109.47135
D6      120.00012

